3bhh
  PyMOL2.3          3D                             0

 27 30  0  0  0  0  0  0  0  0999 V2000
   23.7520   68.3910   31.4980 N   0  0  0  0  0  0  0  0  0  0  0  0
   22.5830   67.8060   31.8030 C   0  0  0  0  0  0  0  0  0  0  0  0
   19.5340   63.6530   32.3410 C   0  0  0  0  0  0  0  0  0  0  0  0
   20.0290   62.4630   31.7980 C   0  0  0  0  0  0  0  0  0  0  0  0
   20.8420   61.6350   32.5800 C   0  0  0  0  0  0  0  0  0  0  0  0
   21.1420   61.9560   33.9090 C   0  0  0  0  0  0  0  0  0  0  0  0
   20.6600   63.1370   34.4650 C   0  0  0  0  0  0  0  0  0  0  0  0
   19.8650   63.9690   33.6740 C   0  0  0  0  0  0  0  0  0  0  0  0
   24.2010   66.5180   32.2650 C   0  0  0  0  0  0  0  0  0  0  0  0
   22.8710   66.6000   32.3420 C   0  0  0  0  0  0  0  0  0  0  0  0
   25.0260   65.3160   32.6790 C   0  0  0  0  0  0  0  0  0  0  0  0
   24.2330   64.0200   32.7110 C   0  0  0  0  0  0  0  0  0  0  0  0
   22.0130   61.0360   34.7380 C   0  0  0  0  0  0  0  0  0  0  0  0
   24.7120   64.6700   34.0220 C   0  0  0  0  0  0  0  0  0  0  0  0
   16.8340   69.9860   30.2340 C   0  0  0  0  0  0  0  0  0  0  0  0
   23.4090   61.0700   34.2750 C   0  0  0  0  0  0  0  0  0  0  0  0
   17.8080   66.4690   30.9130 N   0  0  0  0  0  0  0  0  0  0  0  0
   24.5020   61.0720   33.9640 N   0  0  0  0  0  0  0  0  0  0  0  0
   21.3540   68.3860   31.7270 N   0  0  0  0  0  0  0  0  0  0  0  0
   18.7210   64.4460   31.5870 N   0  0  0  0  0  0  0  0  0  0  0  0
   24.7150   67.6370   31.7320 N   0  0  0  0  0  0  0  0  0  0  0  0
   16.8780   68.4980   30.2140 N   0  0  0  0  0  0  0  0  0  0  0  0
   18.8350   65.7800   31.4020 C   0  0  0  0  0  0  0  0  0  0  0  0
   19.9780   66.4170   31.6880 N   0  0  0  0  0  0  0  0  0  0  0  0
   20.1700   67.7260   31.4790 C   0  0  0  0  0  0  0  0  0  0  0  0
   19.1010   68.4340   30.9780 C   0  0  0  0  0  0  0  0  0  0  0  0
   17.9100   67.7990   30.7050 C   0  0  0  0  0  0  0  0  0  0  0  0
  1  2  4  0  0  0  0
  2 19  1  0  0  0  0
  3  4  4  0  0  0  0
  3  8  4  0  0  0  0
  4  5  4  0  0  0  0
  5  6  4  0  0  0  0
  6 13  1  0  0  0  0
  6  7  4  0  0  0  0
  7  8  4  0  0  0  0
  9 10  4  0  0  0  0
  9 21  4  0  0  0  0
  2 10  4  0  0  0  0
  9 11  1  0  0  0  0
 11 12  1  0  0  0  0
 12 14  1  0  0  0  0
 13 16  1  0  0  0  0
 11 14  1  0  0  0  0
 16 18  3  0  0  0  0
 17 23  4  0  0  0  0
  3 20  1  0  0  0  0
  1 21  4  0  0  0  0
 15 22  1  0  0  0  0
 20 23  1  0  0  0  0
 23 24  4  0  0  0  0
 19 25  1  0  0  0  0
 24 25  4  0  0  0  0
 25 26  4  0  0  0  0
 26 27  4  0  0  0  0
 17 27  4  0  0  0  0
 22 27  1  0  0  0  0
M  END
$$$$
