5vlo
  PyMOL2.3          3D                             0

 39 43  0  0  0  0  0  0  0  0999 V2000
   35.9860   56.3484   32.6102 C   0  0  0  0  0  0  0  0  0  0  0  0
   36.0130   57.6641   33.0607 C   0  0  0  0  0  0  0  0  0  0  0  0
   36.0830   57.9239   34.4308 C   0  0  0  0  0  0  0  0  0  0  0  0
   36.1080   56.8514   35.3210 C   0  0  0  0  0  0  0  0  0  0  0  0
   36.0813   55.5700   34.8798 N   0  0  0  0  0  0  0  0  0  0  0  0
   36.0114   55.3290   33.5524 C   0  0  0  0  0  0  0  0  0  0  0  0
   35.9968   58.8072   32.1142 C   0  0  0  0  0  0  0  0  0  0  0  0
   36.8774   59.8212   32.4512 N   0  0  0  0  0  0  0  0  0  0  0  0
   35.2644   58.7904   31.1289 O   0  0  0  0  0  0  0  0  0  0  0  0
   37.0657   61.0393   31.6803 C   0  0  0  0  0  0  0  0  0  0  0  0
   38.3608   60.9451   30.8307 C   0  0  0  0  0  0  0  0  0  0  0  0
   38.1844   60.2683   29.5115 N   0  0  0  0  0  0  0  0  0  0  0  0
   38.9171   62.3661   30.5968 C   0  0  0  0  0  0  0  0  0  0  0  0
   38.3608   58.7993   29.6075 C   0  0  0  0  0  0  0  0  0  0  0  0
   36.9169   60.6269   28.8472 C   0  0  0  0  0  0  0  0  0  0  0  0
   36.5064   59.7269   27.6815 C   0  0  0  0  0  0  0  0  0  0  0  0
   39.5409   58.4217   30.4969 C   0  0  0  0  0  0  0  0  0  0  0  0
   36.0020   53.9191   33.2069 C   0  0  0  0  0  0  0  0  0  0  0  0
   36.1833   57.0508   36.7038 N   0  0  0  0  0  0  0  0  0  0  0  0
   36.5323   58.2490   37.3853 C   0  0  0  0  0  0  0  0  0  0  0  0
   37.1244   57.3978   38.5070 C   0  0  0  0  0  0  0  0  0  0  0  0
   36.6201   56.1624   37.7393 C   0  0  0  0  0  0  0  0  0  0  0  0
   35.4980   55.3120   38.4168 C   0  0  0  0  0  0  0  0  0  0  0  0
   35.6715   54.1842   38.8895 O   0  0  0  0  0  0  0  0  0  0  0  0
   34.2664   55.9507   38.4394 N   0  0  0  0  0  0  0  0  0  0  0  0
   33.1014   55.3314   39.0245 C   0  0  0  0  0  0  0  0  0  0  0  0
   35.7332   52.7904   34.0066 C   0  0  0  0  0  0  0  0  0  0  0  0
   35.8436   51.6402   33.3412 N   0  0  0  0  0  0  0  0  0  0  0  0
   36.2021   52.0090   32.0857 N   0  0  0  0  0  0  0  0  0  0  0  0
   36.3116   53.3903   31.9699 C   0  0  0  0  0  0  0  0  0  0  0  0
   36.4508   51.1910   30.9903 C   0  0  0  0  0  0  0  0  0  0  0  0
   36.7959   51.7156   29.8079 C   0  0  0  0  0  0  0  0  0  0  0  0
   36.8970   53.2126   29.7623 C   0  0  0  0  0  0  0  0  0  0  0  0
   36.6619   53.9723   30.7906 N   0  0  0  0  0  0  0  0  0  0  0  0
   37.2623   53.8704   28.5098 C   0  0  0  0  0  0  0  0  0  0  0  0
   37.6728   53.3392   27.3005 C   0  0  0  0  0  0  0  0  0  0  0  0
   37.9244   54.3402   26.3148 C   0  0  0  0  0  0  0  0  0  0  0  0
   37.6961   55.6083   26.7932 C   0  0  0  0  0  0  0  0  0  0  0  0
   37.1824   55.5922   28.4194 S   0  0  0  0  0  0  0  0  0  0  0  0
  1  2  4  0  0  0  0
  1  6  4  0  0  0  0
  2  3  4  0  0  0  0
  2  7  1  0  0  0  0
  3  4  4  0  0  0  0
  4  5  4  0  0  0  0
  4 19  1  0  0  0  0
  5  6  4  0  0  0  0
  6 18  1  0  0  0  0
  7  8  1  0  0  0  0
  7  9  2  0  0  0  0
  8 10  1  0  0  0  0
 10 11  1  0  0  0  0
 11 12  1  0  0  0  0
 12 14  1  0  0  0  0
 12 15  1  0  0  0  0
 11 13  1  0  0  0  0
 15 16  1  0  0  0  0
 14 17  1  0  0  0  0
 18 27  4  0  0  0  0
 18 30  4  0  0  0  0
 19 20  1  0  0  0  0
 20 21  1  0  0  0  0
 21 22  1  0  0  0  0
 19 22  1  0  0  0  0
 22 23  1  0  0  0  0
 23 24  2  0  0  0  0
 23 25  1  0  0  0  0
 25 26  1  0  0  0  0
 27 28  4  0  0  0  0
 28 29  4  0  0  0  0
 29 30  4  0  0  0  0
 29 31  4  0  0  0  0
 30 34  4  0  0  0  0
 31 32  4  0  0  0  0
 32 33  4  0  0  0  0
 33 34  4  0  0  0  0
 33 35  1  0  0  0  0
 35 36  4  0  0  0  0
 35 39  4  0  0  0  0
 36 37  4  0  0  0  0
 37 38  4  0  0  0  0
 38 39  4  0  0  0  0
M  END
$$$$
6ayw
  PyMOL2.3          3D                             0

 28 31  0  0  0  0  0  0  0  0999 V2000
   36.3361   53.3453   31.8232 N   0  0  0  0  0  0  0  0  0  0  0  0
   36.6678   54.0593   30.7324 N   0  0  0  0  0  0  0  0  0  0  0  0
   35.9859   53.8479   33.0656 C   0  0  0  0  0  0  0  0  0  0  0  0
   36.2880   51.9685   31.8870 C   0  0  0  0  0  0  0  0  0  0  0  0
   36.9622   53.3461   29.6782 C   0  0  0  0  0  0  0  0  0  0  0  0
   35.9402   51.5663   33.0829 N   0  0  0  0  0  0  0  0  0  0  0  0
   35.7868   52.7088   33.8123 C   0  0  0  0  0  0  0  0  0  0  0  0
   36.0084   55.2343   33.5267 C   0  0  0  0  0  0  0  0  0  0  0  0
   37.2857   54.1361   28.5117 C   0  0  0  0  0  0  0  0  0  0  0  0
   36.9263   51.8547   29.6084 C   0  0  0  0  0  0  0  0  0  0  0  0
   36.5838   51.2219   30.7294 C   0  0  0  0  0  0  0  0  0  0  0  0
   36.3359   58.8037   32.3572 C   0  0  0  0  0  0  0  0  0  0  0  0
   37.1765   55.8451   28.5924 S   0  0  0  0  0  0  0  0  0  0  0  0
   36.1227   56.3475   32.6815 C   0  0  0  0  0  0  0  0  0  0  0  0
   36.2180   57.6338   33.2603 C   0  0  0  0  0  0  0  0  0  0  0  0
   37.6421   53.6908   27.2500 C   0  0  0  0  0  0  0  0  0  0  0  0
   37.6371   55.9989   26.9533 C   0  0  0  0  0  0  0  0  0  0  0  0
   36.6683   59.8939   32.8343 O   0  0  0  0  0  0  0  0  0  0  0  0
   37.8573   54.7763   26.3526 C   0  0  0  0  0  0  0  0  0  0  0  0
   36.1357   58.5495   31.0105 N   0  0  0  0  0  0  0  0  0  0  0  0
   38.8348   59.3258   29.8764 N   0  0  0  0  0  0  0  0  0  0  0  0
   36.2777   59.5721   29.9791 C   0  0  0  0  0  0  0  0  0  0  0  0
   36.0932   55.4487   34.9160 C   0  0  0  0  0  0  0  0  0  0  0  0
   36.2765   57.8188   34.6446 C   0  0  0  0  0  0  0  0  0  0  0  0
   36.2069   56.7184   35.4870 C   0  0  0  0  0  0  0  0  0  0  0  0
   37.5348   59.2458   29.1601 C   0  0  0  0  0  0  0  0  0  0  0  0
   38.9441   60.5023   30.7457 C   0  0  0  0  0  0  0  0  0  0  0  0
   39.2879   58.1009   30.5432 C   0  0  0  0  0  0  0  0  0  0  0  0
  1  2  4  0  0  0  0
  1  3  4  0  0  0  0
  3  7  4  0  0  0  0
  3  8  1  0  0  0  0
  1  4  4  0  0  0  0
  4  6  4  0  0  0  0
  4 11  4  0  0  0  0
  2  5  4  0  0  0  0
  5  9  1  0  0  0  0
  6  7  4  0  0  0  0
  8 14  4  0  0  0  0
  8 23  4  0  0  0  0
  9 13  4  0  0  0  0
  9 16  4  0  0  0  0
  5 10  4  0  0  0  0
 10 11  4  0  0  0  0
 12 18  2  0  0  0  0
 12 20  1  0  0  0  0
 12 15  1  0  0  0  0
 14 15  4  0  0  0  0
 15 24  4  0  0  0  0
 16 19  4  0  0  0  0
 13 17  4  0  0  0  0
 17 19  4  0  0  0  0
 20 22  1  0  0  0  0
 22 26  1  0  0  0  0
 23 25  4  0  0  0  0
 24 25  4  0  0  0  0
 21 26  1  0  0  0  0
 21 27  1  0  0  0  0
 21 28  1  0  0  0  0
M  END
$$$$
2wel
  PyMOL2.3          3D                             0

 26 29  0  0  0  0  0  0  0  0999 V2000
   38.0641   56.6423   29.5832 C   0  0  0  0  0  0  0  0  0  0  0  0
   36.5249   58.0155   30.8205 C   0  0  0  0  0  0  0  0  0  0  0  0
   35.4539   54.9846   29.8612 C   0  0  0  0  0  0  0  0  0  0  0  0
   34.9251   55.0008   31.1438 C   0  0  0  0  0  0  0  0  0  0  0  0
   34.9045   53.8189   31.8785 C   0  0  0  0  0  0  0  0  0  0  0  0
   35.4080   52.6129   31.3419 C   0  0  0  0  0  0  0  0  0  0  0  0
   35.9407   52.6020   30.0600 C   0  0  0  0  0  0  0  0  0  0  0  0
   35.9575   53.7921   29.3202 C   0  0  0  0  0  0  0  0  0  0  0  0
   34.4270   53.5302   33.1449 C   0  0  0  0  0  0  0  0  0  0  0  0
   34.6458   52.1493   33.3320 C   0  0  0  0  0  0  0  0  0  0  0  0
   33.8667   54.5024   33.9716 C   0  0  0  0  0  0  0  0  0  0  0  0
   33.5775   54.3234   35.3258 C   0  0  0  0  0  0  0  0  0  0  0  0
   33.2401   55.3754   36.1127 C   0  0  0  0  0  0  0  0  0  0  0  0
   32.9958   54.8913   37.3561 C   0  0  0  0  0  0  0  0  0  0  0  0
   33.1737   53.5160   37.3089 C   0  0  0  0  0  0  0  0  0  0  0  0
   32.5589   55.6546   38.6164 C   0  0  0  0  0  0  0  0  0  0  0  0
   32.2642   54.7105   39.8089 C   0  0  0  0  0  0  0  0  0  0  0  0
   32.0365   53.2057   39.5246 C   0  0  0  0  0  0  0  0  0  0  0  0
   32.9876   52.5609   38.4905 C   0  0  0  0  0  0  0  0  0  0  0  0
   36.8359   57.4411   29.4905 N   0  0  0  0  0  0  0  0  0  0  0  0
   35.2419   51.6361   32.2432 N   0  0  0  0  0  0  0  0  0  0  0  0
   33.5435   53.1944   36.0590 N   0  0  0  0  0  0  0  0  0  0  0  0
   35.7231   56.0566   27.5107 O   0  0  0  0  0  0  0  0  0  0  0  0
   34.2676   57.2900   29.0922 O   0  0  0  0  0  0  0  0  0  0  0  0
   34.3845   51.4865   34.3315 O   0  0  0  0  0  0  0  0  0  0  0  0
   35.5161   56.5135   28.9063 S   0  0  0  0  0  0  0  0  0  0  0  0
  1 20  1  0  0  0  0
  3  4  4  0  0  0  0
  3  8  4  0  0  0  0
  4  5  4  0  0  0  0
  5  6  4  0  0  0  0
  5  9  4  0  0  0  0
  6 21  4  0  0  0  0
  6  7  4  0  0  0  0
  7  8  4  0  0  0  0
  9 11  1  0  0  0  0
  9 10  4  0  0  0  0
 10 25  2  0  0  0  0
 11 12  1  0  0  0  0
 12 13  4  0  0  0  0
 12 22  4  0  0  0  0
 13 14  4  0  0  0  0
 14 15  4  0  0  0  0
 14 16  1  0  0  0  0
 15 22  4  0  0  0  0
 16 17  1  0  0  0  0
 17 18  1  0  0  0  0
 18 19  1  0  0  0  0
 15 19  1  0  0  0  0
  2 20  1  0  0  0  0
 20 26  1  0  0  0  0
 10 21  4  0  0  0  0
  3 26  1  0  0  0  0
 23 26  2  0  0  0  0
 24 26  2  0  0  0  0
M  END
$$$$
